*SPEF "ieee 1481-1999"
*DESIGN "tiny_user_project"
*DATE "11:11:11 Fri 11 11, 1111"
*VENDOR "OpenRCX"
*PROGRAM "Parallel Extraction"
*VERSION "1.0"
*DESIGN_FLOW "NAME_SCOPE LOCAL" "PIN_CAP NONE"
*DIVIDER /
*DELIMITER :
*BUS_DELIMITER []
*T_UNIT 1 NS
*C_UNIT 1 PF
*R_UNIT 1 OHM
*L_UNIT 1 HENRY

*NAME_MAP
*1 io_in[0]
*2 io_in[10]
*3 io_in[11]
*4 io_in[12]
*5 io_in[13]
*6 io_in[14]
*7 io_in[15]
*8 io_in[16]
*9 io_in[17]
*10 io_in[18]
*11 io_in[19]
*12 io_in[1]
*13 io_in[20]
*14 io_in[21]
*15 io_in[22]
*16 io_in[23]
*17 io_in[24]
*18 io_in[25]
*19 io_in[26]
*20 io_in[27]
*21 io_in[28]
*22 io_in[29]
*23 io_in[2]
*24 io_in[30]
*25 io_in[31]
*26 io_in[32]
*27 io_in[33]
*28 io_in[34]
*29 io_in[35]
*30 io_in[36]
*31 io_in[37]
*32 io_in[3]
*33 io_in[4]
*34 io_in[5]
*35 io_in[6]
*36 io_in[7]
*37 io_in[8]
*38 io_in[9]
*39 net101
*40 net111
*41 net112
*42 net113
*43 net114
*44 net115
*45 net116
*46 net117
*47 net118
*48 net119
*49 net120
*50 net102
*51 net121
*52 net122
*53 net123
*54 net124
*55 net125
*56 net126
*57 net127
*58 net128
*59 net129
*60 net130
*61 net103
*62 net131
*63 net132
*64 net133
*65 net134
*66 net135
*67 net136
*68 net137
*69 net138
*70 net104
*71 net105
*72 net106
*73 net107
*74 net108
*75 net109
*76 net110
*77 net175
*78 net17
*79 net18
*80 net19
*81 net20
*82 net21
*83 net22
*84 io_out[16]
*85 io_out[17]
*86 io_out[18]
*87 io_out[19]
*88 net176
*89 io_out[20]
*90 io_out[21]
*91 io_out[22]
*92 io_out[23]
*93 net23
*94 net24
*95 net25
*96 net26
*97 net27
*98 net28
*99 net177
*100 net29
*101 net30
*102 net31
*103 net32
*104 net33
*105 net34
*106 net35
*107 net36
*108 net178
*109 net179
*110 net180
*111 net181
*112 net182
*113 net183
*114 net184
*115 la_data_in[0]
*116 la_data_in[10]
*117 la_data_in[11]
*118 la_data_in[12]
*119 la_data_in[13]
*120 la_data_in[14]
*121 la_data_in[15]
*122 la_data_in[16]
*123 la_data_in[17]
*124 la_data_in[18]
*125 la_data_in[19]
*126 la_data_in[1]
*127 la_data_in[20]
*128 la_data_in[21]
*129 la_data_in[22]
*130 la_data_in[23]
*131 la_data_in[24]
*132 la_data_in[25]
*133 la_data_in[26]
*134 la_data_in[27]
*135 la_data_in[28]
*136 la_data_in[29]
*137 la_data_in[2]
*138 la_data_in[30]
*139 la_data_in[31]
*140 la_data_in[32]
*141 la_data_in[33]
*142 la_data_in[34]
*143 la_data_in[35]
*144 la_data_in[36]
*145 la_data_in[37]
*146 la_data_in[38]
*147 la_data_in[39]
*148 la_data_in[3]
*149 la_data_in[40]
*150 la_data_in[41]
*151 la_data_in[42]
*152 la_data_in[43]
*153 la_data_in[44]
*154 la_data_in[45]
*155 la_data_in[46]
*156 la_data_in[47]
*157 la_data_in[48]
*158 la_data_in[49]
*159 la_data_in[4]
*160 la_data_in[50]
*161 la_data_in[51]
*162 la_data_in[52]
*163 la_data_in[53]
*164 la_data_in[54]
*165 la_data_in[55]
*166 la_data_in[56]
*167 la_data_in[57]
*168 la_data_in[58]
*169 la_data_in[59]
*170 la_data_in[5]
*171 la_data_in[60]
*172 la_data_in[61]
*173 la_data_in[62]
*174 la_data_in[63]
*175 la_data_in[6]
*176 la_data_in[7]
*177 la_data_in[8]
*178 la_data_in[9]
*179 net37
*180 net47
*181 net48
*182 net49
*183 net50
*184 net51
*185 net52
*186 net53
*187 net54
*188 net55
*189 net56
*190 net38
*191 net57
*192 net58
*193 net59
*194 net60
*195 net61
*196 net62
*197 net63
*198 net64
*199 net65
*200 net66
*201 net39
*202 net67
*203 net68
*204 net69
*205 net70
*206 net71
*207 net72
*208 net73
*209 net74
*210 net75
*211 net76
*212 net40
*213 net77
*214 net78
*215 net79
*216 net80
*217 net81
*218 net82
*219 net83
*220 net84
*221 net85
*222 net86
*223 net41
*224 net87
*225 net88
*226 net89
*227 net90
*228 net91
*229 net92
*230 net93
*231 net94
*232 net95
*233 net96
*234 net42
*235 net97
*236 net98
*237 net99
*238 net100
*239 net43
*240 net44
*241 net45
*242 net46
*243 la_oenb[0]
*244 la_oenb[10]
*245 la_oenb[11]
*246 la_oenb[12]
*247 la_oenb[13]
*248 la_oenb[14]
*249 la_oenb[15]
*250 la_oenb[16]
*251 la_oenb[17]
*252 la_oenb[18]
*253 la_oenb[19]
*254 la_oenb[1]
*255 la_oenb[20]
*256 la_oenb[21]
*257 la_oenb[22]
*258 la_oenb[23]
*259 la_oenb[24]
*260 la_oenb[25]
*261 la_oenb[26]
*262 la_oenb[27]
*263 la_oenb[28]
*264 la_oenb[29]
*265 la_oenb[2]
*266 la_oenb[30]
*267 la_oenb[31]
*268 la_oenb[32]
*269 la_oenb[33]
*270 la_oenb[34]
*271 la_oenb[35]
*272 la_oenb[36]
*273 la_oenb[37]
*274 la_oenb[38]
*275 la_oenb[39]
*276 la_oenb[3]
*277 la_oenb[40]
*278 la_oenb[41]
*279 la_oenb[42]
*280 la_oenb[43]
*281 la_oenb[44]
*282 la_oenb[45]
*283 la_oenb[46]
*284 la_oenb[47]
*285 la_oenb[48]
*286 la_oenb[49]
*287 la_oenb[4]
*288 la_oenb[50]
*289 la_oenb[51]
*290 la_oenb[52]
*291 la_oenb[53]
*292 la_oenb[54]
*293 la_oenb[55]
*294 la_oenb[56]
*295 la_oenb[57]
*296 la_oenb[58]
*297 la_oenb[59]
*298 la_oenb[5]
*299 la_oenb[60]
*300 la_oenb[61]
*301 la_oenb[62]
*302 la_oenb[63]
*303 la_oenb[6]
*304 la_oenb[7]
*305 la_oenb[8]
*306 la_oenb[9]
*307 user_clock2
*308 net139
*309 net140
*310 net141
*313 wb_clk_i
*314 wb_rst_i
*315 net142
*316 wbs_adr_i[0]
*317 wbs_adr_i[10]
*318 wbs_adr_i[11]
*319 wbs_adr_i[12]
*320 wbs_adr_i[13]
*321 wbs_adr_i[14]
*322 wbs_adr_i[15]
*323 wbs_adr_i[16]
*324 wbs_adr_i[17]
*325 wbs_adr_i[18]
*326 wbs_adr_i[19]
*327 wbs_adr_i[1]
*328 wbs_adr_i[20]
*329 wbs_adr_i[21]
*330 wbs_adr_i[22]
*331 wbs_adr_i[23]
*332 wbs_adr_i[24]
*333 wbs_adr_i[25]
*334 wbs_adr_i[26]
*335 wbs_adr_i[27]
*336 wbs_adr_i[28]
*337 wbs_adr_i[29]
*338 wbs_adr_i[2]
*339 wbs_adr_i[30]
*340 wbs_adr_i[31]
*341 wbs_adr_i[3]
*342 wbs_adr_i[4]
*343 wbs_adr_i[5]
*344 wbs_adr_i[6]
*345 wbs_adr_i[7]
*346 wbs_adr_i[8]
*347 wbs_adr_i[9]
*348 wbs_cyc_i
*349 wbs_dat_i[0]
*350 wbs_dat_i[10]
*351 wbs_dat_i[11]
*352 wbs_dat_i[12]
*353 wbs_dat_i[13]
*354 wbs_dat_i[14]
*355 wbs_dat_i[15]
*356 wbs_dat_i[16]
*357 wbs_dat_i[17]
*358 wbs_dat_i[18]
*359 wbs_dat_i[19]
*360 wbs_dat_i[1]
*361 wbs_dat_i[20]
*362 wbs_dat_i[21]
*363 wbs_dat_i[22]
*364 wbs_dat_i[23]
*365 wbs_dat_i[24]
*366 wbs_dat_i[25]
*367 wbs_dat_i[26]
*368 wbs_dat_i[27]
*369 wbs_dat_i[28]
*370 wbs_dat_i[29]
*371 wbs_dat_i[2]
*372 wbs_dat_i[30]
*373 wbs_dat_i[31]
*374 wbs_dat_i[3]
*375 wbs_dat_i[4]
*376 wbs_dat_i[5]
*377 wbs_dat_i[6]
*378 wbs_dat_i[7]
*379 wbs_dat_i[8]
*380 wbs_dat_i[9]
*381 net143
*382 net153
*383 net154
*384 net155
*385 net156
*386 net157
*387 net158
*388 net159
*389 net160
*390 net161
*391 net162
*392 net144
*393 net163
*394 net164
*395 net165
*396 net166
*397 net167
*398 net168
*399 net169
*400 net170
*401 net171
*402 net172
*403 net145
*404 net173
*405 net174
*406 net146
*407 net147
*408 net148
*409 net149
*410 net150
*411 net151
*412 net152
*413 wbs_sel_i[0]
*414 wbs_sel_i[1]
*415 wbs_sel_i[2]
*416 wbs_sel_i[3]
*417 wbs_stb_i
*418 wbs_we_i
*419 net1
*420 net10
*421 net11
*422 net12
*423 net13
*424 net14
*425 net15
*426 net16
*427 net2
*428 net3
*429 net4
*430 net5
*431 net6
*432 net7
*433 net8
*434 net9
*435 ANTENNA__168__I
*436 ANTENNA__169__I
*437 ANTENNA__170__I
*438 ANTENNA__172__I
*439 ANTENNA__174__I
*440 ANTENNA_input1_I
*441 ANTENNA_input2_I
*442 ANTENNA_input3_I
*443 ANTENNA_input4_I
*444 ANTENNA_input5_I
*445 ANTENNA_input6_I
*446 ANTENNA_input7_I
*447 ANTENNA_input8_I
*448 ANTENNA_output10_I
*449 ANTENNA_output11_I
*450 ANTENNA_output12_I
*451 ANTENNA_output13_I
*452 ANTENNA_output14_I
*453 ANTENNA_output15_I
*454 ANTENNA_output9_I
*455 FILLER_0_101
*456 FILLER_0_1011
*457 FILLER_0_1014
*458 FILLER_0_1017
*459 FILLER_0_1032
*460 FILLER_0_1038
*461 FILLER_0_1044
*462 FILLER_0_107
*463 FILLER_0_11
*464 FILLER_0_115
*465 FILLER_0_119
*466 FILLER_0_135
*467 FILLER_0_139
*468 FILLER_0_142
*469 FILLER_0_174
*470 FILLER_0_177
*471 FILLER_0_2
*472 FILLER_0_209
*473 FILLER_0_212
*474 FILLER_0_228
*475 FILLER_0_233
*476 FILLER_0_237
*477 FILLER_0_239
*478 FILLER_0_244
*479 FILLER_0_247
*480 FILLER_0_251
*481 FILLER_0_257
*482 FILLER_0_263
*483 FILLER_0_27
*484 FILLER_0_279
*485 FILLER_0_282
*486 FILLER_0_287
*487 FILLER_0_299
*488 FILLER_0_317
*489 FILLER_0_323
*490 FILLER_0_329
*491 FILLER_0_345
*492 FILLER_0_349
*493 FILLER_0_352
*494 FILLER_0_368
*495 FILLER_0_37
*496 FILLER_0_372
*497 FILLER_0_377
*498 FILLER_0_387
*499 FILLER_0_395
*500 FILLER_0_411
*501 FILLER_0_419
*502 FILLER_0_422
*503 FILLER_0_426
*504 FILLER_0_431
*505 FILLER_0_447
*506 FILLER_0_449
*507 FILLER_0_454
*508 FILLER_0_457
*509 FILLER_0_462
*510 FILLER_0_466
*511 FILLER_0_468
*512 FILLER_0_473
*513 FILLER_0_485
*514 FILLER_0_489
*515 FILLER_0_492
*516 FILLER_0_508
*517 FILLER_0_516
*518 FILLER_0_521
*519 FILLER_0_527
*520 FILLER_0_53
*521 FILLER_0_543
*522 FILLER_0_551
*523 FILLER_0_559
*524 FILLER_0_562
*525 FILLER_0_59
*526 FILLER_0_594
*527 FILLER_0_597
*528 FILLER_0_6
*529 FILLER_0_602
*530 FILLER_0_608
*531 FILLER_0_612
*532 FILLER_0_617
*533 FILLER_0_625
*534 FILLER_0_629
*535 FILLER_0_632
*536 FILLER_0_65
*537 FILLER_0_664
*538 FILLER_0_667
*539 FILLER_0_672
*540 FILLER_0_676
*541 FILLER_0_678
*542 FILLER_0_683
*543 FILLER_0_69
*544 FILLER_0_695
*545 FILLER_0_699
*546 FILLER_0_702
*547 FILLER_0_718
*548 FILLER_0_72
*549 FILLER_0_726
*550 FILLER_0_731
*551 FILLER_0_737
*552 FILLER_0_749
*553 FILLER_0_761
*554 FILLER_0_769
*555 FILLER_0_77
*556 FILLER_0_772
*557 FILLER_0_777
*558 FILLER_0_793
*559 FILLER_0_801
*560 FILLER_0_807
*561 FILLER_0_827
*562 FILLER_0_835
*563 FILLER_0_839
*564 FILLER_0_842
*565 FILLER_0_874
*566 FILLER_0_877
*567 FILLER_0_885
*568 FILLER_0_893
*569 FILLER_0_909
*570 FILLER_0_912
*571 FILLER_0_93
*572 FILLER_0_944
*573 FILLER_0_947
*574 FILLER_0_952
*575 FILLER_0_960
*576 FILLER_0_964
*577 FILLER_0_966
*578 FILLER_0_971
*579 FILLER_0_979
*580 FILLER_0_982
*581 FILLER_0_987
*582 FILLER_0_995
*583 FILLER_100_101
*584 FILLER_100_1024
*585 FILLER_100_1028
*586 FILLER_100_1031
*587 FILLER_100_1039
*588 FILLER_100_1043
*589 FILLER_100_105
*590 FILLER_100_108
*591 FILLER_100_172
*592 FILLER_100_176
*593 FILLER_100_179
*594 FILLER_100_2
*595 FILLER_100_243
*596 FILLER_100_247
*597 FILLER_100_250
*598 FILLER_100_314
*599 FILLER_100_318
*600 FILLER_100_321
*601 FILLER_100_34
*602 FILLER_100_37
*603 FILLER_100_385
*604 FILLER_100_389
*605 FILLER_100_392
*606 FILLER_100_456
*607 FILLER_100_460
*608 FILLER_100_463
*609 FILLER_100_527
*610 FILLER_100_531
*611 FILLER_100_534
*612 FILLER_100_598
*613 FILLER_100_602
*614 FILLER_100_605
*615 FILLER_100_669
*616 FILLER_100_673
*617 FILLER_100_676
*618 FILLER_100_740
*619 FILLER_100_744
*620 FILLER_100_747
*621 FILLER_100_811
*622 FILLER_100_815
*623 FILLER_100_818
*624 FILLER_100_882
*625 FILLER_100_886
*626 FILLER_100_889
*627 FILLER_100_953
*628 FILLER_100_957
*629 FILLER_100_960
*630 FILLER_101_1028
*631 FILLER_101_1036
*632 FILLER_101_1044
*633 FILLER_101_137
*634 FILLER_101_141
*635 FILLER_101_144
*636 FILLER_101_2
*637 FILLER_101_208
*638 FILLER_101_212
*639 FILLER_101_215
*640 FILLER_101_279
*641 FILLER_101_283
*642 FILLER_101_286
*643 FILLER_101_350
*644 FILLER_101_354
*645 FILLER_101_357
*646 FILLER_101_421
*647 FILLER_101_425
*648 FILLER_101_428
*649 FILLER_101_492
*650 FILLER_101_496
*651 FILLER_101_499
*652 FILLER_101_563
*653 FILLER_101_567
*654 FILLER_101_570
*655 FILLER_101_634
*656 FILLER_101_638
*657 FILLER_101_641
*658 FILLER_101_66
*659 FILLER_101_70
*660 FILLER_101_705
*661 FILLER_101_709
*662 FILLER_101_712
*663 FILLER_101_73
*664 FILLER_101_776
*665 FILLER_101_780
*666 FILLER_101_783
*667 FILLER_101_847
*668 FILLER_101_851
*669 FILLER_101_854
*670 FILLER_101_918
*671 FILLER_101_922
*672 FILLER_101_925
*673 FILLER_101_989
*674 FILLER_101_993
*675 FILLER_101_996
*676 FILLER_102_101
*677 FILLER_102_1024
*678 FILLER_102_1028
*679 FILLER_102_1031
*680 FILLER_102_1039
*681 FILLER_102_1043
*682 FILLER_102_105
*683 FILLER_102_108
*684 FILLER_102_13
*685 FILLER_102_172
*686 FILLER_102_176
*687 FILLER_102_179
*688 FILLER_102_2
*689 FILLER_102_243
*690 FILLER_102_247
*691 FILLER_102_250
*692 FILLER_102_29
*693 FILLER_102_314
*694 FILLER_102_318
*695 FILLER_102_321
*696 FILLER_102_33
*697 FILLER_102_37
*698 FILLER_102_385
*699 FILLER_102_389
*700 FILLER_102_392
*701 FILLER_102_456
*702 FILLER_102_460
*703 FILLER_102_463
*704 FILLER_102_495
*705 FILLER_102_511
*706 FILLER_102_515
*707 FILLER_102_518
*708 FILLER_102_526
*709 FILLER_102_530
*710 FILLER_102_534
*711 FILLER_102_598
*712 FILLER_102_602
*713 FILLER_102_605
*714 FILLER_102_669
*715 FILLER_102_673
*716 FILLER_102_676
*717 FILLER_102_7
*718 FILLER_102_740
*719 FILLER_102_744
*720 FILLER_102_747
*721 FILLER_102_811
*722 FILLER_102_815
*723 FILLER_102_818
*724 FILLER_102_882
*725 FILLER_102_886
*726 FILLER_102_889
*727 FILLER_102_953
*728 FILLER_102_957
*729 FILLER_102_960
*730 FILLER_103_1028
*731 FILLER_103_1036
*732 FILLER_103_1044
*733 FILLER_103_137
*734 FILLER_103_141
*735 FILLER_103_144
*736 FILLER_103_2
*737 FILLER_103_208
*738 FILLER_103_212
*739 FILLER_103_215
*740 FILLER_103_279
*741 FILLER_103_283
*742 FILLER_103_286
*743 FILLER_103_350
*744 FILLER_103_354
*745 FILLER_103_357
*746 FILLER_103_421
*747 FILLER_103_425
*748 FILLER_103_428
*749 FILLER_103_492
*750 FILLER_103_496
*751 FILLER_103_499
*752 FILLER_103_563
*753 FILLER_103_567
*754 FILLER_103_570
*755 FILLER_103_634
*756 FILLER_103_638
*757 FILLER_103_641
*758 FILLER_103_66
*759 FILLER_103_70
*760 FILLER_103_705
*761 FILLER_103_709
*762 FILLER_103_712
*763 FILLER_103_73
*764 FILLER_103_776
*765 FILLER_103_780
*766 FILLER_103_783
*767 FILLER_103_847
*768 FILLER_103_851
*769 FILLER_103_854
*770 FILLER_103_918
*771 FILLER_103_922
*772 FILLER_103_925
*773 FILLER_103_989
*774 FILLER_103_993
*775 FILLER_103_996
*776 FILLER_104_101
*777 FILLER_104_1024
*778 FILLER_104_1028
*779 FILLER_104_1031
*780 FILLER_104_1039
*781 FILLER_104_1043
*782 FILLER_104_105
*783 FILLER_104_108
*784 FILLER_104_17
*785 FILLER_104_172
*786 FILLER_104_176
*787 FILLER_104_179
*788 FILLER_104_2
*789 FILLER_104_21
*790 FILLER_104_243
*791 FILLER_104_247
*792 FILLER_104_250
*793 FILLER_104_29
*794 FILLER_104_314
*795 FILLER_104_318
*796 FILLER_104_321
*797 FILLER_104_33
*798 FILLER_104_37
*799 FILLER_104_385
*800 FILLER_104_389
*801 FILLER_104_392
*802 FILLER_104_456
*803 FILLER_104_460
*804 FILLER_104_463
*805 FILLER_104_527
*806 FILLER_104_531
*807 FILLER_104_534
*808 FILLER_104_598
*809 FILLER_104_602
*810 FILLER_104_605
*811 FILLER_104_669
*812 FILLER_104_673
*813 FILLER_104_676
*814 FILLER_104_740
*815 FILLER_104_744
*816 FILLER_104_747
*817 FILLER_104_811
*818 FILLER_104_815
*819 FILLER_104_818
*820 FILLER_104_882
*821 FILLER_104_886
*822 FILLER_104_889
*823 FILLER_104_953
*824 FILLER_104_957
*825 FILLER_104_960
*826 FILLER_105_1028
*827 FILLER_105_1044
*828 FILLER_105_137
*829 FILLER_105_141
*830 FILLER_105_144
*831 FILLER_105_2
*832 FILLER_105_208
*833 FILLER_105_212
*834 FILLER_105_215
*835 FILLER_105_279
*836 FILLER_105_283
*837 FILLER_105_286
*838 FILLER_105_350
*839 FILLER_105_354
*840 FILLER_105_357
*841 FILLER_105_421
*842 FILLER_105_425
*843 FILLER_105_428
*844 FILLER_105_492
*845 FILLER_105_496
*846 FILLER_105_499
*847 FILLER_105_563
*848 FILLER_105_567
*849 FILLER_105_570
*850 FILLER_105_634
*851 FILLER_105_638
*852 FILLER_105_641
*853 FILLER_105_66
*854 FILLER_105_70
*855 FILLER_105_705
*856 FILLER_105_709
*857 FILLER_105_712
*858 FILLER_105_73
*859 FILLER_105_776
*860 FILLER_105_780
*861 FILLER_105_783
*862 FILLER_105_847
*863 FILLER_105_851
*864 FILLER_105_854
*865 FILLER_105_918
*866 FILLER_105_922
*867 FILLER_105_925
*868 FILLER_105_989
*869 FILLER_105_993
*870 FILLER_105_996
*871 FILLER_106_101
*872 FILLER_106_1024
*873 FILLER_106_1028
*874 FILLER_106_1031
*875 FILLER_106_1039
*876 FILLER_106_1043
*877 FILLER_106_105
*878 FILLER_106_108
*879 FILLER_106_172
*880 FILLER_106_176
*881 FILLER_106_179
*882 FILLER_106_2
*883 FILLER_106_243
*884 FILLER_106_247
*885 FILLER_106_250
*886 FILLER_106_314
*887 FILLER_106_318
*888 FILLER_106_321
*889 FILLER_106_34
*890 FILLER_106_37
*891 FILLER_106_385
*892 FILLER_106_389
*893 FILLER_106_392
*894 FILLER_106_456
*895 FILLER_106_460
*896 FILLER_106_463
*897 FILLER_106_527
*898 FILLER_106_531
*899 FILLER_106_534
*900 FILLER_106_598
*901 FILLER_106_602
*902 FILLER_106_605
*903 FILLER_106_669
*904 FILLER_106_673
*905 FILLER_106_676
*906 FILLER_106_740
*907 FILLER_106_744
*908 FILLER_106_747
*909 FILLER_106_811
*910 FILLER_106_815
*911 FILLER_106_818
*912 FILLER_106_882
*913 FILLER_106_886
*914 FILLER_106_889
*915 FILLER_106_953
*916 FILLER_106_957
*917 FILLER_106_960
*918 FILLER_107_1028
*919 FILLER_107_1044
*920 FILLER_107_137
*921 FILLER_107_141
*922 FILLER_107_144
*923 FILLER_107_2
*924 FILLER_107_208
*925 FILLER_107_212
*926 FILLER_107_215
*927 FILLER_107_279
*928 FILLER_107_283
*929 FILLER_107_286
*930 FILLER_107_350
*931 FILLER_107_354
*932 FILLER_107_357
*933 FILLER_107_421
*934 FILLER_107_425
*935 FILLER_107_428
*936 FILLER_107_492
*937 FILLER_107_496
*938 FILLER_107_499
*939 FILLER_107_563
*940 FILLER_107_567
*941 FILLER_107_570
*942 FILLER_107_634
*943 FILLER_107_638
*944 FILLER_107_641
*945 FILLER_107_66
*946 FILLER_107_70
*947 FILLER_107_705
*948 FILLER_107_709
*949 FILLER_107_712
*950 FILLER_107_73
*951 FILLER_107_776
*952 FILLER_107_780
*953 FILLER_107_783
*954 FILLER_107_847
*955 FILLER_107_851
*956 FILLER_107_854
*957 FILLER_107_918
*958 FILLER_107_922
*959 FILLER_107_925
*960 FILLER_107_989
*961 FILLER_107_993
*962 FILLER_107_996
*963 FILLER_108_101
*964 FILLER_108_1024
*965 FILLER_108_1028
*966 FILLER_108_1031
*967 FILLER_108_1039
*968 FILLER_108_1044
*969 FILLER_108_105
*970 FILLER_108_108
*971 FILLER_108_172
*972 FILLER_108_176
*973 FILLER_108_179
*974 FILLER_108_2
*975 FILLER_108_243
*976 FILLER_108_247
*977 FILLER_108_250
*978 FILLER_108_314
*979 FILLER_108_318
*980 FILLER_108_321
*981 FILLER_108_34
*982 FILLER_108_37
*983 FILLER_108_385
*984 FILLER_108_389
*985 FILLER_108_392
*986 FILLER_108_456
*987 FILLER_108_460
*988 FILLER_108_463
*989 FILLER_108_527
*990 FILLER_108_531
*991 FILLER_108_534
*992 FILLER_108_598
*993 FILLER_108_602
*994 FILLER_108_605
*995 FILLER_108_669
*996 FILLER_108_673
*997 FILLER_108_676
*998 FILLER_108_740
*999 FILLER_108_744
*1000 FILLER_108_747
*1001 FILLER_108_811
*1002 FILLER_108_815
*1003 FILLER_108_818
*1004 FILLER_108_882
*1005 FILLER_108_886
*1006 FILLER_108_889
*1007 FILLER_108_953
*1008 FILLER_108_957
*1009 FILLER_108_960
*1010 FILLER_109_1028
*1011 FILLER_109_1044
*1012 FILLER_109_137
*1013 FILLER_109_141
*1014 FILLER_109_144
*1015 FILLER_109_2
*1016 FILLER_109_208
*1017 FILLER_109_212
*1018 FILLER_109_215
*1019 FILLER_109_279
*1020 FILLER_109_283
*1021 FILLER_109_286
*1022 FILLER_109_350
*1023 FILLER_109_354
*1024 FILLER_109_357
*1025 FILLER_109_421
*1026 FILLER_109_425
*1027 FILLER_109_428
*1028 FILLER_109_492
*1029 FILLER_109_496
*1030 FILLER_109_499
*1031 FILLER_109_563
*1032 FILLER_109_567
*1033 FILLER_109_570
*1034 FILLER_109_634
*1035 FILLER_109_638
*1036 FILLER_109_641
*1037 FILLER_109_66
*1038 FILLER_109_70
*1039 FILLER_109_705
*1040 FILLER_109_709
*1041 FILLER_109_712
*1042 FILLER_109_73
*1043 FILLER_109_776
*1044 FILLER_109_780
*1045 FILLER_109_783
*1046 FILLER_109_847
*1047 FILLER_109_851
*1048 FILLER_109_854
*1049 FILLER_109_918
*1050 FILLER_109_922
*1051 FILLER_109_925
*1052 FILLER_109_989
*1053 FILLER_109_993
*1054 FILLER_109_996
*1055 FILLER_10_101
*1056 FILLER_10_1024
*1057 FILLER_10_1028
*1058 FILLER_10_1031
*1059 FILLER_10_1039
*1060 FILLER_10_1043
*1061 FILLER_10_105
*1062 FILLER_10_108
*1063 FILLER_10_172
*1064 FILLER_10_176
*1065 FILLER_10_179
*1066 FILLER_10_2
*1067 FILLER_10_23
*1068 FILLER_10_243
*1069 FILLER_10_247
*1070 FILLER_10_250
*1071 FILLER_10_31
*1072 FILLER_10_314
*1073 FILLER_10_318
*1074 FILLER_10_321
*1075 FILLER_10_37
*1076 FILLER_10_385
*1077 FILLER_10_389
*1078 FILLER_10_392
*1079 FILLER_10_456
*1080 FILLER_10_460
*1081 FILLER_10_463
*1082 FILLER_10_527
*1083 FILLER_10_531
*1084 FILLER_10_534
*1085 FILLER_10_598
*1086 FILLER_10_602
*1087 FILLER_10_605
*1088 FILLER_10_669
*1089 FILLER_10_673
*1090 FILLER_10_676
*1091 FILLER_10_7
*1092 FILLER_10_740
*1093 FILLER_10_744
*1094 FILLER_10_747
*1095 FILLER_10_811
*1096 FILLER_10_815
*1097 FILLER_10_818
*1098 FILLER_10_882
*1099 FILLER_10_886
*1100 FILLER_10_889
*1101 FILLER_10_953
*1102 FILLER_10_957
*1103 FILLER_10_960
*1104 FILLER_110_101
*1105 FILLER_110_1024
*1106 FILLER_110_1028
*1107 FILLER_110_1031
*1108 FILLER_110_1039
*1109 FILLER_110_1043
*1110 FILLER_110_105
*1111 FILLER_110_108
*1112 FILLER_110_172
*1113 FILLER_110_176
*1114 FILLER_110_179
*1115 FILLER_110_2
*1116 FILLER_110_21
*1117 FILLER_110_243
*1118 FILLER_110_247
*1119 FILLER_110_250
*1120 FILLER_110_29
*1121 FILLER_110_314
*1122 FILLER_110_318
*1123 FILLER_110_321
*1124 FILLER_110_33
*1125 FILLER_110_37
*1126 FILLER_110_385
*1127 FILLER_110_389
*1128 FILLER_110_392
*1129 FILLER_110_456
*1130 FILLER_110_460
*1131 FILLER_110_463
*1132 FILLER_110_5
*1133 FILLER_110_527
*1134 FILLER_110_531
*1135 FILLER_110_534
*1136 FILLER_110_598
*1137 FILLER_110_602
*1138 FILLER_110_605
*1139 FILLER_110_669
*1140 FILLER_110_673
*1141 FILLER_110_676
*1142 FILLER_110_740
*1143 FILLER_110_744
*1144 FILLER_110_747
*1145 FILLER_110_811
*1146 FILLER_110_815
*1147 FILLER_110_818
*1148 FILLER_110_882
*1149 FILLER_110_886
*1150 FILLER_110_889
*1151 FILLER_110_953
*1152 FILLER_110_957
*1153 FILLER_110_960
*1154 FILLER_111_1028
*1155 FILLER_111_1044
*1156 FILLER_111_137
*1157 FILLER_111_141
*1158 FILLER_111_144
*1159 FILLER_111_19
*1160 FILLER_111_2
*1161 FILLER_111_208
*1162 FILLER_111_212
*1163 FILLER_111_215
*1164 FILLER_111_279
*1165 FILLER_111_283
*1166 FILLER_111_286
*1167 FILLER_111_350
*1168 FILLER_111_354
*1169 FILLER_111_357
*1170 FILLER_111_421
*1171 FILLER_111_425
*1172 FILLER_111_428
*1173 FILLER_111_492
*1174 FILLER_111_496
*1175 FILLER_111_499
*1176 FILLER_111_51
*1177 FILLER_111_563
*1178 FILLER_111_567
*1179 FILLER_111_570
*1180 FILLER_111_634
*1181 FILLER_111_638
*1182 FILLER_111_641
*1183 FILLER_111_67
*1184 FILLER_111_705
*1185 FILLER_111_709
*1186 FILLER_111_712
*1187 FILLER_111_73
*1188 FILLER_111_776
*1189 FILLER_111_780
*1190 FILLER_111_783
*1191 FILLER_111_847
*1192 FILLER_111_851
*1193 FILLER_111_854
*1194 FILLER_111_918
*1195 FILLER_111_922
*1196 FILLER_111_925
*1197 FILLER_111_989
*1198 FILLER_111_993
*1199 FILLER_111_996
*1200 FILLER_112_101
*1201 FILLER_112_1024
*1202 FILLER_112_1028
*1203 FILLER_112_1031
*1204 FILLER_112_1039
*1205 FILLER_112_1044
*1206 FILLER_112_105
*1207 FILLER_112_108
*1208 FILLER_112_172
*1209 FILLER_112_176
*1210 FILLER_112_179
*1211 FILLER_112_2
*1212 FILLER_112_23
*1213 FILLER_112_243
*1214 FILLER_112_247
*1215 FILLER_112_250
*1216 FILLER_112_31
*1217 FILLER_112_314
*1218 FILLER_112_318
*1219 FILLER_112_321
*1220 FILLER_112_37
*1221 FILLER_112_385
*1222 FILLER_112_389
*1223 FILLER_112_392
*1224 FILLER_112_456
*1225 FILLER_112_460
*1226 FILLER_112_463
*1227 FILLER_112_527
*1228 FILLER_112_531
*1229 FILLER_112_534
*1230 FILLER_112_598
*1231 FILLER_112_602
*1232 FILLER_112_605
*1233 FILLER_112_669
*1234 FILLER_112_673
*1235 FILLER_112_676
*1236 FILLER_112_7
*1237 FILLER_112_740
*1238 FILLER_112_744
*1239 FILLER_112_747
*1240 FILLER_112_811
*1241 FILLER_112_815
*1242 FILLER_112_818
*1243 FILLER_112_882
*1244 FILLER_112_886
*1245 FILLER_112_889
*1246 FILLER_112_953
*1247 FILLER_112_957
*1248 FILLER_112_960
*1249 FILLER_113_1028
*1250 FILLER_113_1044
*1251 FILLER_113_137
*1252 FILLER_113_141
*1253 FILLER_113_144
*1254 FILLER_113_2
*1255 FILLER_113_208
*1256 FILLER_113_212
*1257 FILLER_113_215
*1258 FILLER_113_279
*1259 FILLER_113_283
*1260 FILLER_113_286
*1261 FILLER_113_350
*1262 FILLER_113_354
*1263 FILLER_113_357
*1264 FILLER_113_421
*1265 FILLER_113_425
*1266 FILLER_113_428
*1267 FILLER_113_492
*1268 FILLER_113_496
*1269 FILLER_113_499
*1270 FILLER_113_563
*1271 FILLER_113_567
*1272 FILLER_113_570
*1273 FILLER_113_634
*1274 FILLER_113_638
*1275 FILLER_113_641
*1276 FILLER_113_66
*1277 FILLER_113_70
*1278 FILLER_113_705
*1279 FILLER_113_709
*1280 FILLER_113_712
*1281 FILLER_113_73
*1282 FILLER_113_776
*1283 FILLER_113_780
*1284 FILLER_113_783
*1285 FILLER_113_847
*1286 FILLER_113_851
*1287 FILLER_113_854
*1288 FILLER_113_918
*1289 FILLER_113_922
*1290 FILLER_113_925
*1291 FILLER_113_989
*1292 FILLER_113_993
*1293 FILLER_113_996
*1294 FILLER_114_101
*1295 FILLER_114_1024
*1296 FILLER_114_1028
*1297 FILLER_114_1031
*1298 FILLER_114_1039
*1299 FILLER_114_1043
*1300 FILLER_114_105
*1301 FILLER_114_108
*1302 FILLER_114_172
*1303 FILLER_114_176
*1304 FILLER_114_179
*1305 FILLER_114_2
*1306 FILLER_114_23
*1307 FILLER_114_243
*1308 FILLER_114_247
*1309 FILLER_114_250
*1310 FILLER_114_31
*1311 FILLER_114_314
*1312 FILLER_114_318
*1313 FILLER_114_321
*1314 FILLER_114_37
*1315 FILLER_114_385
*1316 FILLER_114_389
*1317 FILLER_114_392
*1318 FILLER_114_456
*1319 FILLER_114_460
*1320 FILLER_114_463
*1321 FILLER_114_527
*1322 FILLER_114_531
*1323 FILLER_114_534
*1324 FILLER_114_598
*1325 FILLER_114_602
*1326 FILLER_114_605
*1327 FILLER_114_669
*1328 FILLER_114_673
*1329 FILLER_114_676
*1330 FILLER_114_7
*1331 FILLER_114_740
*1332 FILLER_114_744
*1333 FILLER_114_747
*1334 FILLER_114_811
*1335 FILLER_114_815
*1336 FILLER_114_818
*1337 FILLER_114_882
*1338 FILLER_114_886
*1339 FILLER_114_889
*1340 FILLER_114_953
*1341 FILLER_114_957
*1342 FILLER_114_960
*1343 FILLER_115_1028
*1344 FILLER_115_1044
*1345 FILLER_115_137
*1346 FILLER_115_141
*1347 FILLER_115_144
*1348 FILLER_115_2
*1349 FILLER_115_208
*1350 FILLER_115_212
*1351 FILLER_115_215
*1352 FILLER_115_279
*1353 FILLER_115_283
*1354 FILLER_115_286
*1355 FILLER_115_350
*1356 FILLER_115_354
*1357 FILLER_115_357
*1358 FILLER_115_421
*1359 FILLER_115_425
*1360 FILLER_115_428
*1361 FILLER_115_492
*1362 FILLER_115_496
*1363 FILLER_115_499
*1364 FILLER_115_563
*1365 FILLER_115_567
*1366 FILLER_115_570
*1367 FILLER_115_634
*1368 FILLER_115_638
*1369 FILLER_115_641
*1370 FILLER_115_66
*1371 FILLER_115_70
*1372 FILLER_115_705
*1373 FILLER_115_709
*1374 FILLER_115_712
*1375 FILLER_115_73
*1376 FILLER_115_776
*1377 FILLER_115_780
*1378 FILLER_115_783
*1379 FILLER_115_847
*1380 FILLER_115_851
*1381 FILLER_115_854
*1382 FILLER_115_918
*1383 FILLER_115_922
*1384 FILLER_115_925
*1385 FILLER_115_989
*1386 FILLER_115_993
*1387 FILLER_115_996
*1388 FILLER_116_101
*1389 FILLER_116_1024
*1390 FILLER_116_1028
*1391 FILLER_116_1031
*1392 FILLER_116_1039
*1393 FILLER_116_1043
*1394 FILLER_116_105
*1395 FILLER_116_108
*1396 FILLER_116_172
*1397 FILLER_116_176
*1398 FILLER_116_179
*1399 FILLER_116_2
*1400 FILLER_116_243
*1401 FILLER_116_247
*1402 FILLER_116_250
*1403 FILLER_116_314
*1404 FILLER_116_318
*1405 FILLER_116_321
*1406 FILLER_116_34
*1407 FILLER_116_37
*1408 FILLER_116_385
*1409 FILLER_116_389
*1410 FILLER_116_392
*1411 FILLER_116_456
*1412 FILLER_116_460
*1413 FILLER_116_463
*1414 FILLER_116_527
*1415 FILLER_116_531
*1416 FILLER_116_534
*1417 FILLER_116_598
*1418 FILLER_116_602
*1419 FILLER_116_605
*1420 FILLER_116_669
*1421 FILLER_116_673
*1422 FILLER_116_676
*1423 FILLER_116_740
*1424 FILLER_116_744
*1425 FILLER_116_747
*1426 FILLER_116_811
*1427 FILLER_116_815
*1428 FILLER_116_818
*1429 FILLER_116_882
*1430 FILLER_116_886
*1431 FILLER_116_889
*1432 FILLER_116_953
*1433 FILLER_116_957
*1434 FILLER_116_960
*1435 FILLER_117_1028
*1436 FILLER_117_1044
*1437 FILLER_117_137
*1438 FILLER_117_141
*1439 FILLER_117_144
*1440 FILLER_117_2
*1441 FILLER_117_208
*1442 FILLER_117_212
*1443 FILLER_117_215
*1444 FILLER_117_279
*1445 FILLER_117_283
*1446 FILLER_117_286
*1447 FILLER_117_350
*1448 FILLER_117_354
*1449 FILLER_117_357
*1450 FILLER_117_421
*1451 FILLER_117_425
*1452 FILLER_117_428
*1453 FILLER_117_492
*1454 FILLER_117_496
*1455 FILLER_117_499
*1456 FILLER_117_563
*1457 FILLER_117_567
*1458 FILLER_117_570
*1459 FILLER_117_634
*1460 FILLER_117_638
*1461 FILLER_117_641
*1462 FILLER_117_7
*1463 FILLER_117_705
*1464 FILLER_117_709
*1465 FILLER_117_712
*1466 FILLER_117_73
*1467 FILLER_117_776
*1468 FILLER_117_780
*1469 FILLER_117_783
*1470 FILLER_117_847
*1471 FILLER_117_851
*1472 FILLER_117_854
*1473 FILLER_117_918
*1474 FILLER_117_922
*1475 FILLER_117_925
*1476 FILLER_117_989
*1477 FILLER_117_993
*1478 FILLER_117_996
*1479 FILLER_118_101
*1480 FILLER_118_1024
*1481 FILLER_118_1028
*1482 FILLER_118_1031
*1483 FILLER_118_1039
*1484 FILLER_118_1044
*1485 FILLER_118_105
*1486 FILLER_118_108
*1487 FILLER_118_172
*1488 FILLER_118_176
*1489 FILLER_118_179
*1490 FILLER_118_2
*1491 FILLER_118_243
*1492 FILLER_118_247
*1493 FILLER_118_250
*1494 FILLER_118_314
*1495 FILLER_118_318
*1496 FILLER_118_321
*1497 FILLER_118_34
*1498 FILLER_118_37
*1499 FILLER_118_385
*1500 FILLER_118_389
*1501 FILLER_118_392
*1502 FILLER_118_456
*1503 FILLER_118_460
*1504 FILLER_118_463
*1505 FILLER_118_527
*1506 FILLER_118_531
*1507 FILLER_118_534
*1508 FILLER_118_598
*1509 FILLER_118_602
*1510 FILLER_118_605
*1511 FILLER_118_669
*1512 FILLER_118_673
*1513 FILLER_118_676
*1514 FILLER_118_740
*1515 FILLER_118_744
*1516 FILLER_118_747
*1517 FILLER_118_811
*1518 FILLER_118_815
*1519 FILLER_118_818
*1520 FILLER_118_882
*1521 FILLER_118_886
*1522 FILLER_118_889
*1523 FILLER_118_953
*1524 FILLER_118_957
*1525 FILLER_118_960
*1526 FILLER_119_1028
*1527 FILLER_119_1044
*1528 FILLER_119_137
*1529 FILLER_119_141
*1530 FILLER_119_144
*1531 FILLER_119_2
*1532 FILLER_119_208
*1533 FILLER_119_212
*1534 FILLER_119_215
*1535 FILLER_119_279
*1536 FILLER_119_283
*1537 FILLER_119_286
*1538 FILLER_119_350
*1539 FILLER_119_354
*1540 FILLER_119_357
*1541 FILLER_119_421
*1542 FILLER_119_425
*1543 FILLER_119_428
*1544 FILLER_119_492
*1545 FILLER_119_496
*1546 FILLER_119_499
*1547 FILLER_119_563
*1548 FILLER_119_567
*1549 FILLER_119_570
*1550 FILLER_119_634
*1551 FILLER_119_638
*1552 FILLER_119_641
*1553 FILLER_119_7
*1554 FILLER_119_705
*1555 FILLER_119_709
*1556 FILLER_119_712
*1557 FILLER_119_73
*1558 FILLER_119_776
*1559 FILLER_119_780
*1560 FILLER_119_783
*1561 FILLER_119_847
*1562 FILLER_119_851
*1563 FILLER_119_854
*1564 FILLER_119_918
*1565 FILLER_119_922
*1566 FILLER_119_925
*1567 FILLER_119_989
*1568 FILLER_119_993
*1569 FILLER_119_996
*1570 FILLER_11_1028
*1571 FILLER_11_1036
*1572 FILLER_11_1044
*1573 FILLER_11_137
*1574 FILLER_11_141
*1575 FILLER_11_144
*1576 FILLER_11_2
*1577 FILLER_11_208
*1578 FILLER_11_212
*1579 FILLER_11_215
*1580 FILLER_11_279
*1581 FILLER_11_283
*1582 FILLER_11_286
*1583 FILLER_11_350
*1584 FILLER_11_354
*1585 FILLER_11_357
*1586 FILLER_11_421